<configuration>
     <input>
         <net-file value="map.net.xml"/> 		
         <additional-files value="map.poly.xml"/>
         <route-files value="map.rou.alt.xml"/>
     </input>
 </configuration>